Version 4
SHEET 1 1076 680
WIRE -592 -416 -672 -416
WIRE -48 -416 -592 -416
WIRE -672 -400 -672 -416
WIRE -672 -400 -1296 -400
WIRE -592 -400 -592 -416
WIRE -128 -336 -208 -336
WIRE -304 -304 -384 -304
WIRE -208 -304 -208 -336
WIRE -208 -304 -304 -304
WIRE -256 -224 -304 -224
WIRE -208 -224 -208 -240
WIRE -208 -224 -256 -224
WIRE -592 -208 -592 -320
WIRE -256 -208 -256 -224
WIRE -912 -176 -1040 -176
WIRE -128 -176 -128 -336
WIRE -128 -176 -400 -176
WIRE -912 -160 -912 -176
WIRE -880 -160 -912 -160
WIRE -736 -160 -784 -160
WIRE -256 -128 -368 -128
WIRE -48 -128 -48 -416
WIRE -48 -128 -176 -128
WIRE -1296 -96 -1296 -400
WIRE -592 -96 -592 -112
WIRE -464 -96 -464 -304
WIRE -464 -96 -592 -96
WIRE -400 -64 -400 -176
WIRE -400 -64 -480 -64
WIRE -48 -64 -48 -128
WIRE 112 -64 -48 -64
WIRE 176 -64 112 -64
WIRE -368 -32 -368 -128
WIRE -368 -32 -448 -32
WIRE -304 -32 -368 -32
WIRE -48 -32 -48 -64
WIRE -48 -32 -80 -32
WIRE -928 -16 -1296 -16
WIRE -480 32 -480 -64
WIRE -304 32 -480 32
WIRE -32 32 -80 32
WIRE 112 32 112 16
WIRE 112 32 -32 32
WIRE -928 48 -928 -16
WIRE 112 64 112 32
WIRE -800 96 -832 96
WIRE -592 96 -592 -16
WIRE -592 96 -720 96
WIRE -448 96 -592 96
WIRE -304 96 -352 96
WIRE -32 96 -32 32
WIRE -32 96 -80 96
WIRE -832 128 -832 96
WIRE -832 128 -880 128
WIRE -832 144 -832 128
WIRE -304 160 -336 160
WIRE -48 160 -80 160
WIRE -928 224 -928 144
WIRE -880 224 -928 224
WIRE -832 224 -880 224
WIRE -880 240 -880 224
WIRE -48 256 -48 224
WIRE 112 256 112 128
WIRE 112 256 -48 256
WIRE -48 272 -48 256
WIRE -336 304 -336 160
WIRE 176 304 176 -64
WIRE 176 304 -336 304
FLAG -880 240 0
FLAG -448 -32 0
FLAG -48 272 0
FLAG -256 -208 0
FLAG -1120 -176 0
SYMBOL nmos -880 48 M0
SYMATTR InstName M1
SYMBOL Misc\\NE555 -192 64 R0
SYMATTR InstName U1
SYMBOL voltage -160 -128 R90
WINDOW 123 0 0 Left 0
WINDOW 39 0 0 Left 0
SYMATTR InstName V1
SYMATTR Value 2.5
SYMBOL cap 128 128 R180
WINDOW 0 24 56 Left 2
WINDOW 3 24 8 Left 2
SYMATTR InstName C1
SYMATTR Value 2.2µ
SYMBOL res 128 32 R180
WINDOW 0 36 76 Left 2
WINDOW 3 36 40 Left 2
SYMATTR InstName R1
SYMATTR Value 2.2k
SYMBOL res -608 -112 R0
WINDOW 0 41 33 Left 2
SYMATTR InstName R2
SYMATTR Value 100
SYMBOL res -320 -320 R0
SYMATTR InstName R3
SYMATTR Value 18k
SYMBOL res -816 80 M90
WINDOW 0 0 56 VBottom 2
WINDOW 3 32 56 VTop 2
SYMATTR InstName R4
SYMATTR Value 10k
SYMBOL res -848 240 M180
WINDOW 0 36 76 Left 2
WINDOW 3 36 40 Left 2
SYMATTR InstName R5
SYMATTR Value 10k
SYMBOL res -480 -288 R270
WINDOW 0 32 56 VTop 2
WINDOW 3 0 56 VBottom 2
SYMATTR InstName R6
SYMATTR Value 12k
SYMBOL res -752 -144 R270
WINDOW 0 32 56 VTop 2
WINDOW 3 -13 47 VBottom 2
SYMATTR InstName R7
SYMATTR Value 100
SYMBOL res -608 -416 R0
SYMATTR InstName R8
SYMATTR Value 100
SYMBOL cap -64 160 R0
SYMATTR InstName C2
SYMATTR Value 10n
SYMBOL cap -224 -304 R0
SYMATTR InstName C3
SYMATTR Value 150µ
SYMBOL res -1312 -112 R0
SYMATTR InstName R10
SYMATTR Value 1
SYMBOL voltage -1024 -176 R90
WINDOW 0 -32 56 VBottom 2
WINDOW 3 32 56 VTop 2
WINDOW 123 0 0 Left 0
WINDOW 39 0 0 Left 0
SYMATTR InstName V2
SYMATTR Value PULSE(0 2.5 0 0.01 0.01 20 40 2)
SYMBOL eea_symb\\not -848 -208 R0
SYMATTR InstName U2
SYMBOL eea_symb\\not -384 48 M0
SYMATTR InstName U3
SYMBOL npn -656 -208 R0
SYMATTR InstName Q1
TEXT -938 -458 Left 2 !.tran 0 80 0 startup
TEXT -32 -496 Left 2 !.inc eea.lib
