Version 4
SHEET 1 880 680
WIRE 160 -208 16 -208
WIRE 304 -208 240 -208
WIRE 304 -160 304 -208
WIRE 528 -160 464 -160
WIRE 464 -112 464 -160
WIRE 528 -112 528 -160
WIRE 192 -32 160 -32
WIRE 304 -32 304 -80
WIRE 304 -32 256 -32
WIRE 160 0 160 -32
WIRE 464 32 464 -32
WIRE 304 48 304 -32
WIRE 432 48 304 48
WIRE 656 64 496 64
WIRE 16 80 16 -208
WIRE 16 80 0 80
WIRE 32 80 16 80
WIRE 176 80 112 80
WIRE 304 80 256 80
WIRE 432 80 304 80
WIRE 304 128 304 80
WIRE 464 160 464 96
WIRE 304 256 304 208
FLAG 0 80 0
FLAG 304 256 0
FLAG 160 0 0
FLAG 464 160 0
FLAG 528 -112 0
SYMBOL voltage 128 80 R90
WINDOW 3 21 98 Left 2
WINDOW 123 0 0 Left 0
WINDOW 39 0 0 Left 0
SYMATTR InstName V1
SYMATTR Value 12V
SYMBOL res 288 112 R0
SYMATTR InstName R1
SYMATTR Value 1k
SYMBOL res 272 64 R90
WINDOW 0 0 56 VBottom 2
WINDOW 3 32 56 VTop 2
SYMATTR InstName R2
SYMATTR Value 1k
SYMBOL cap 256 -48 R90
WINDOW 0 0 32 VBottom 2
WINDOW 3 32 32 VTop 2
SYMATTR InstName C1
SYMATTR Value 1µ
SYMBOL res 288 -176 R0
SYMATTR InstName R3
SYMATTR Value 2890k
SYMBOL voltage 256 -208 R90
WINDOW 0 -32 56 VBottom 2
WINDOW 3 32 56 VTop 2
WINDOW 123 0 0 Left 0
WINDOW 39 0 0 Left 0
SYMATTR InstName V2
SYMATTR Value PULSE(0V 12V 0 1n 1n 15 20)
SYMBOL voltage 464 -16 R180
WINDOW 0 24 96 Left 2
WINDOW 3 24 16 Left 2
WINDOW 123 0 0 Left 0
WINDOW 39 0 0 Left 0
SYMATTR InstName V3
SYMATTR Value 12V
SYMBOL Opamps\\UniversalOpamp2 464 64 R0
SYMATTR InstName U1
TEXT -20 280 Left 2 !.tran 50
TEXT -16 312 Left 2 !.lib opamp.sub
